test/test_files/IEEE_test_cases/dd17.cdf
 01/02/90 IEEE WORKING GROUP    100.0 1990 S 17-GEN  CASE
BUS DATA FOLLOWS                    162 ITEMS (HEADER)
   1 COOPR 3  345  1  9  0 1.0326 -25.33     0.00     0.00     0.00    0.00  345.00 0.0000  0.0000  0.0000  0.0000 -1.0000    0    1
   2 MOOR  3  345  1  9  0 1.0224 -29.99     0.00     0.00     0.00    0.00  345.00 0.0000  0.0000  0.0000  0.0000  0.0000    0    2
   3 STJO712  161  1 12  0 0.9999 -32.49  2370.00    96.90  2000.00    0.00  161.00 0.0000  0.0000  0.0000  0.0000  0.0000    0    3
   4 BOONIL3  345  1  3  0 1.0190 -33.74     0.00     0.00     0.00    0.00  345.00 0.0000  0.0000  0.0000  0.0000  0.0000    0    4
   5 NEBCY 3  345  1  8  0 1.0339 -24.51     0.00     0.00     0.00    0.00  345.00 0.0000  0.0000  0.0000  0.0000 -0.5000    0    5
   6    6R1G   22  1  9  2 1.0000 -19.15     0.00     0.00   794.00  180.81   22.00 1.0000  400.00 -200.00  0.0000  0.0000    0    6
   7    7LN3  345  1  9  0 1.0187 -30.38     0.00     0.00     0.00    0.00  345.00 0.0000  0.0000  0.0000  0.0000  0.0000    0    7
   8    8ER7  115  1 12  0 1.0344 -33.81     0.00     0.00  -398.00  -19.20  115.00 0.0000  0.0000  0.0000  0.0000  0.0000    0    8
   9    94 3  345  1  8  0 1.0263 -27.76     0.00     0.00     0.00    0.00  345.00 0.0000  0.0000  0.0000  0.0000  0.0000    0    9
  10 TWINCH4  230  1 12  0 0.9928 -35.69     0.00     0.00  -226.00   11.50  230.00 0.0000  0.0000  0.0000  0.0000  0.0000    0   10
  11 SX CY 4  230  1 10  0 0.9996 -31.83     0.00     0.00     0.00    0.00  230.00 0.0000  0.0000  0.0000  0.0000  0.0000    0   11
  12 SHELON7  115  1 12  0 1.0379 -33.66     0.00     0.00  -193.00    5.90  115.00 0.0000  0.0000  0.0000  0.0000  0.0000    0   12
  13 GR ILD3  345  1 12  0 1.0147 -30.67     0.00     0.00  -204.00  -37.30  345.00 0.0000  0.0000  0.0000  0.0000  0.0000    0   13
  14 S1206 5  161  1 12  0 1.0280 -31.03     0.00     0.00  -381.00  -56.30  161.00 0.0000  0.0000  0.0000  0.0000  0.0000    0   14
  15 FTRAD 4  230  1 12  0 1.0185 -24.52  1420.00     0.00  1500.00    5.90  230.00 0.0000  0.0000  0.0000  0.0000  0.0000    0   15
  16 ROCHTR5  161  1 12  0 1.0141 -29.58     0.00     0.00    54.20  -26.70  161.00 0.0000  0.0000  0.0000  0.0000  0.0000    0   16
  17 HARMNY5  161  1 12  0 1.0059 -28.80     0.00     0.00   116.50  -44.70  161.00 0.0000  0.0000  0.0000  0.0000  0.0000    0   17
  18 ADAM  5  161  1  6  0 1.0353 -33.75    34.40    11.67     0.00    0.00  161.00 0.0000  0.0000  0.0000  0.0000  0.0000    0   18
  19 DUBUUE5  161  1 12  0 0.9993 -38.05     0.00     0.00   -64.40   -3.78  161.00 0.0000  0.0000  0.0000  0.0000  0.0000    0   19
  20 HINTON8   69  1 10  0 0.9793 -32.69    37.90    12.50     0.00    0.00   69.00 0.0000  0.0000  0.0000  0.0000  0.0000    0   20
  21 POSTIL5  161  1 12  0 1.0080 -30.42     0.00     0.00    69.80  -23.20  161.00 0.0000  0.0000  0.0000  0.0000  0.0000    0   21
  22 HAZLON5  161  1  6  0 1.0336 -37.63    17.39     5.27     0.00    0.00  161.00 0.0000  0.0000  0.0000  0.0000  0.0000    0   22
  23 HRN K 5  161  1 12  0 0.9881 -34.85     0.00     0.00   -63.50  -21.40  161.00 0.0000  0.0000  0.0000  0.0000  0.0000    0   23
  24 LAKFD 5  161  1  6  0 1.0091 -33.32     0.00     0.00     0.00    0.00  161.00 0.0000  0.0000  0.0000  0.0000  0.0000    0   24
  25 LAKFD 3  345  1  6  0 1.0012 -29.37     0.00     0.00     0.00    0.00  345.00 0.0000  0.0000  0.0000  0.0000 -0.5000    0   25
  26 RAUN  3  345  1  1  0 1.0323 -21.49     0.00     0.00     0.00    0.00  345.00 0.0000  0.0000  0.0000  0.0000 -0.5000    0   26
  27 WILMRT3  345  1 12  0 0.9978 -30.39  1824.00    57.90  1500.00    0.00  345.00 0.0000  0.0000  0.0000  0.0000  0.0000    0   27
  28 FOX K 5  161  1  6  0 0.9882 -36.13    38.47    13.17     0.00    0.00  161.00 0.0000  0.0000  0.0000  0.0000  0.0000    0   28
  29 WINBGO5  161  1  6  0 0.9879 -37.93    28.31     9.03     0.00    0.00  161.00 0.0000  0.0000  0.0000  0.0000  0.0000    0   29
  30 HAYWD 5  161  1  6  0 0.9978 -39.81   101.20    32.52     0.00    0.00  161.00 0.0000  0.0000  0.0000  0.0000  0.1500    0   30
  31 RAPIAN5  161  1 12  0 0.9902 -37.07     0.00     0.00   -72.50    3.10  161.00 0.0000  0.0000  0.0000  0.0000  0.0000    0   31
  32 LIMECK5  161  1  6  0 1.0046 -41.08    52.70    15.06     0.00    0.00  161.00 0.0000  0.0000  0.0000  0.0000  0.2000    0   32
  33 MASNTY5  161  1  6  0 0.9980 -43.01    45.17    15.06     0.00   -0.10  161.00 0.0000  0.0000  0.0000  0.0000  0.2000    0   33
  34 FRANKN5  161  1  1  0 0.9984 -43.00    14.18     5.25     0.00    0.00  161.00 0.0000  0.0000  0.0000  0.0000  0.0320    0   34
  35 FLOY  5  161  1  1  0 0.9891 -44.44    54.48    14.63     0.00    0.00  161.00 0.0000  0.0000  0.0000  0.0000  0.0500    0   35
  36 GARNR 5  161  1  2  0 0.9957 -43.16    31.96     8.68     0.00    0.00  161.00 0.0000  0.0000  0.0000  0.0000  0.0300    0   36
  37 ADAM  3  345  1 11  0 0.9868 -30.58     0.00     0.00     0.00    0.00  345.00 0.0000  0.0000  0.0000  0.0000  0.0000    0   37
  38 DUNDE 5  161  1  2  0 1.0185 -38.15    14.76     4.08     0.00    0.00  161.00 0.0000  0.0000  0.0000  0.0000  0.0150    0   38
  39 HAZLON3  345  1  6  0 0.9874 -33.22     0.00     0.00     0.00    0.00  345.00 0.0000  0.0000  0.0000  0.0000  0.0000    0   39
  40 BLKHK 5  161  1  1  0 0.9997 -42.06    52.88    17.60     0.00    0.00  161.00 0.0000  0.0000  0.0000  0.0000  0.0000    0   40
  41 WSHBN 5  161  1  1  0 1.0074 -40.21    39.20    12.80     0.00    0.00  161.00 0.0000  0.0000  0.0000  0.0000  0.0000    0   41
  42 ARNOD 3  345  1  2  0 1.0036 -33.03     0.00     0.00     0.00    0.00  345.00 0.0000  0.0000  0.0000  0.0000  0.0000    0   42
  43 CLINON5  161  1 12  0 1.0118 -35.64     0.00     0.00   -41.50   17.20  161.00 0.0000  0.0000  0.0000  0.0000  0.0000    0   43
  44 CALUS 5  161  1  2  0 1.0071 -36.16    16.32     3.71     0.00    0.00  161.00 0.0000  0.0000  0.0000  0.0000  0.0000    0   44
  45 TRIBJI5  161  1  2  0 0.9955 -36.22    20.02     5.41     0.00    0.00  161.00 0.0000  0.0000  0.0000  0.0000  0.0190    0   45
  46 DENIN 5  161  1 10  0 0.9988 -38.96    65.31    22.30     0.00    0.00  161.00 0.0000  0.0000  0.0000  0.0000  0.2620    0   46
  47 ANITTP5  161  1  2  0 0.9907 -41.68     4.82     1.56     0.00    0.00  161.00 0.0000  0.0000  0.0000  0.0000  0.0000    0   47
  48 CRESN 5  161  1 10  0 0.9997 -40.60    93.76    22.86    60.00   29.97  161.00 0.0000  0.0000  0.0000  0.0000  0.0000    0   48
  49 ANIT  5  161  1  2  0 0.9886 -42.00     6.82     1.78     0.00    0.00  161.00 0.0000  0.0000  0.0000  0.0000  0.0000    0   49
  50 MARY 12  161  1 12  0 0.9961 -39.50     0.00     0.00   -99.70   23.40  161.00 0.0000  0.0000  0.0000  0.0000  0.0000    0   50
  51 CLRNA 5  161  1  3  0 0.9915 -38.23     0.00     0.00     0.00    0.00  161.00 0.0000  0.0000  0.0000  0.0000  0.0000    0   51
  52 D.MON 5  161  1  3  0 1.0148 -39.33   218.20    42.80     0.00    0.00  161.00 0.0000  0.0000  0.0000  0.0000  0.0000    0   52
  53 SX CY 5  161  1 10  0 0.9954 -30.68     0.00     0.00     0.00    0.00  161.00 0.0000  0.0000  0.0000  0.0000  0.0000    0   53
  54 WISDM 5  161  1 10  0 0.9885 -37.87    94.04    29.57    23.70    9.00  161.00 0.0000  0.0000  0.0000  0.0000  0.0000    0   54
  55 PLYMH 5  161  1  1  0 0.9960 -30.39     0.00     0.00     0.00    0.00  161.00 0.0000  0.0000  0.0000  0.0000  0.0000    0   55
  56 OSGOD 5  161  1  7  0 0.9914 -40.50    25.29     7.26     0.00    0.00  161.00 0.0000  0.0000  0.0000  0.0000  0.0320    0   56
  57 SAC   5  161  1  1  0 0.9975 -37.54    48.48    15.61     0.00   20.00  161.00 0.0000  0.0000  0.0000  0.0000  0.0000    0   57
  58 UTICJC4  230  1 10  0 1.0085 -28.69     0.00     0.00     0.00    0.00  230.00 0.0000  0.0000  0.0000  0.0000  0.0000    0   58
  59 EAGL  4  230  1 10  0 0.9842 -33.03    84.43    27.05     0.00    0.00  230.00 0.0000  0.0000  0.0000  0.0000  0.0000    0   59
  60 SX FLL7  115  1 12  0 0.9922 -34.01     0.00     0.00  -244.00  -26.00  115.00 0.0000  0.0000  0.0000  0.0000  0.0000    0   60
  61 SIOXLS4  230  1 10  0 0.9833 -31.43     0.00     0.00     0.00    0.00  230.00 0.0000  0.0000  0.0000  0.0000  0.0000    0   61
  62 FTTHMP4  230  1 12  0 1.0235 -18.47     0.00     0.00   865.60   70.80  230.00 0.0000  0.0000  0.0000  0.0000  0.0000    0   62
  63 HANLN 4  230  1 12  0 0.9882 -29.77     0.00     0.00   -59.10    2.90  230.00 0.0000  0.0000  0.0000  0.0000  0.0000    0   63
  64 SIOXLS   345  1 10  0 1.0152 -28.89     0.00     0.00     0.00    0.00  345.00 0.0000  0.0000  0.0000  0.0000  0.0000    0   64
  65 WTRTWN3  345  1 12  0 0.9965 -25.32     0.00     0.00    26.30 -116.00  345.00 0.0000  0.0000  0.0000  0.0000  0.0000    0   65
  66 SX CY 3  345  1 10  0 1.0004 -31.12     0.00     0.00     0.00    0.00  345.00 0.0000  0.0000  0.0000  0.0000 -0.5000    0   66
  67 BURT  5  161  1  7  0 0.9998 -41.74    22.54     7.03     0.00    0.00  161.00 0.0000  0.0000  0.0000  0.0000  0.0600    0   67
  68 HOPE  5  161  1  7  0 1.0134 -40.24    40.42    12.68     0.00    0.00  161.00 0.0000  0.0000  0.0000  0.0000  0.1200    0   68
  69 HOPET 5  161  1  1  0 1.0202 -38.92     0.00     0.00     0.00    0.00  161.00 0.0000  0.0000  0.0000  0.0000  0.0000    0   69
  70 NEAL  5  161  1  1  0 1.0263 -23.58     0.00     0.00     0.00    0.00  161.00 0.0000  0.0000  0.0000  0.0000  0.0000    0   70
  71 MONOA 5  161  1  1  0 0.9922 -31.78    29.87    11.93     0.00    0.00  161.00 0.0000  0.0000  0.0000  0.0000  0.1200    0   71
  72 S1209 5  161  1 12  0 1.0167 -30.78     0.00     0.00  -427.00 -110.00  161.00 0.0000  0.0000  0.0000  0.0000  0.0000    0   72
  73 NEAL12G   20  1  1  2 1.0000 -18.46     0.00     0.00   447.00   85.84   20.00 1.0000  267.00  -72.00  0.0000  0.0000    0   73
  74 LEHIH 3  345  1  5  0 1.0116 -33.57     0.00     0.00     0.00    0.00  345.00 0.0000  0.0000  0.0000  0.0000  0.0000    0   74
  75 FT.CL 3  345  1  8  0 1.0299 -25.43     0.00     0.00     0.00    0.00  345.00 0.0000  0.0000  0.0000  0.0000 -0.5000    0   75
  76 NEAL34G   24  1  1  2 1.0000 -16.49     0.00     0.00  1055.00  136.31   24.00 1.0000  605.00 -170.00  0.0000  0.0000    0   76
  77 WRIGT 5  161  1  1  0 1.0111 -40.49    26.41     8.78     0.00   -0.10  161.00 0.0000  0.0000  0.0000  0.0000  0.0470    0   77
  78 FT.DDG5  161  1  5  0 1.0229 -38.24    79.12     0.00     0.00    0.00  161.00 0.0000  0.0000  0.0000  0.0000  0.0000    0   78
  79 LEHIH 5  161  1  5  0 1.0317 -36.19     0.00     0.00     0.00    0.00  161.00 0.0000  0.0000  0.0000  0.0000  0.0000    0   79
  80 POMEOY5  161  1  1  0 1.0099 -38.36    15.76     5.25     0.00    0.00  161.00 0.0000  0.0000  0.0000  0.0000  0.0280    0   80
  81 WATELO8   69  1  1  0 1.0009 -46.43    50.88    16.80     0.00    0.00   69.00 0.0000  0.0000  0.0000  0.0000  0.2210    0   81
  82 WATELO5  161  1  1  0 0.9988 -42.03    62.28    20.26     0.00    0.00  161.00 0.0000  0.0000  0.0000  0.0000  0.1040    0   82
  83 WTR OGT  161  1  1  0 1.0031 -41.13     0.00     0.00     0.00    0.00  161.00 0.0000  0.0000  0.0000  0.0000  0.0000    0   83
  84 DYSAT 5  161  1  2  0 1.0097 -37.77    37.90     9.49     0.00    0.00  161.00 0.0000  0.0000  0.0000  0.0000  0.0260    0   84
  85 CARRLL5  161  1  1  0 0.9706 -41.07    40.52    11.26     0.00   -0.10  161.00 0.0000  0.0000  0.0000  0.0000  0.1200    0   85
  86 GR JT 5  161  1  2  0 0.9696 -45.00    50.73    13.35     0.00    0.00  161.00 0.0000  0.0000  0.0000  0.0000  0.1200    0   86
  87 GUTHIE7  115  1  2  0 0.9799 -43.55    16.91     4.23     0.00    0.00  115.00 0.0000  0.0000  0.0000  0.0000  0.0000    0   87
  88 JASPR 8   69  1  4  0 0.9889 -44.77    60.60     4.44     0.00    0.00   69.00 0.0000  0.0000  0.0000  0.0000  0.0000    0   88
  89 GR JT 7  115  1  2  0 0.9910 -46.17     0.00     0.00     0.00    0.00  115.00 0.0000  0.0000  0.0000  0.0000  0.0000    0   89
  90 BOON  7  115  1  2  0 0.9611 -48.66    50.21    16.76     0.00    0.00  115.00 0.0000  0.0000  0.0000  0.0000  0.1000    0   90
  91 CDRPS 5  161  1  2  0 1.0121 -36.55    51.24    12.83     0.00    0.00  161.00 0.0000  0.0000  0.0000  0.0000  0.0000    0   91
  92 WYOMG 5  161  1  2  0 1.0023 -37.52    36.12     9.05     0.00    0.00  161.00 0.0000  0.0000  0.0000  0.0000  0.0000    0   92
  93 ARNOD 5  161  1  2  0 1.0290 -32.66   103.80    34.56     0.00    0.00  161.00 0.0000  0.0000  0.0000  0.0000  0.0000    0   93
  94 HILL  5  161  1  5  0 1.0262 -36.94   164.00     6.49     0.00    0.00  161.00 0.0000  0.0000  0.0000  0.0000  0.0000    0   94
  95 PRARCK7  115  1  2  0 1.0300 -36.56   117.20    39.01     0.00    0.00  115.00 0.0000  0.0000  0.0000  0.0000  0.0000    0   95
  96 MTOW  7  115  1  2  0 1.0011 -45.08   119.20     0.00     0.00    0.00  115.00 0.0000  0.0000  0.0000  0.0000  0.0000    0   96
  97 CALUS 7  115  1  2  0 1.0266 -37.22    22.84     5.71     0.00    0.00  115.00 0.0000  0.0000  0.0000  0.0000  0.0000    0   97
  98 SIX T 7  115  1  2  0 1.0443 -35.32   151.10    50.35     0.00   30.00  115.00 0.0000  0.0000  0.0000  0.0000  0.0000    0   98
  99 PRARK4G   18  1  2  2 1.0000 -31.41     0.00     0.00   130.90    5.21   18.00 1.0000   75.60  -60.60  0.0000  0.0000    0   99
 100 WELSRG7  115  1  2  0 0.9871 -45.84    23.21     6.90     0.00    0.00  115.00 0.0000  0.0000  0.0000  0.0000  0.0300    0  100
 101 MTOW 3G   14  1  2  2 1.0000 -40.09     0.00     0.00    82.00   30.34   14.00 1.0000   38.60  -24.40  0.0000  0.0000    0  101
 102 MQOKTA5  161  1  2  0 1.0032 -37.03    16.54     4.08     0.00    0.00  161.00 0.0000  0.0000  0.0000  0.0000  0.0000    0  102
 103 DAVNRT5  161  1 12  0 1.0150 -34.68     0.00     0.00  -322.00   45.80  161.00 0.0000  0.0000  0.0000  0.0000  0.0000    0  103
 104 IA FS 7  115  1  2  0 0.9927 -44.64    31.52    10.46     0.00   -0.10  115.00 0.0000  0.0000  0.0000  0.0000  0.0560    0  104
 105 DUNDE 7  115  1  2  0 1.0338 -38.59    24.84     6.23     0.00    0.00  115.00 0.0000  0.0000  0.0000  0.0000  0.0170    0  105
 106 MONRE 5  161  1  4  0 0.9946 -43.01     0.00     0.00     0.00    0.00  161.00 0.0000  0.0000  0.0000  0.0000  0.0000    0  106
 107 POWAHK5  161  1  4  0 0.9908 -43.90    35.41     5.41     0.00    0.00  161.00 0.0000  0.0000  0.0000  0.0000  0.0000    0  107
 108 AROL 1G   22  1  2  3 1.0000 -27.69     0.00     0.00   551.12  155.82   22.00 1.0000 9999.00-9999.00  0.0000  0.0000    0  108
 109 HILL  3  345  1  5  0 1.0134 -33.05     0.00     0.00     0.00    0.00  345.00 0.0000  0.0000  0.0000  0.0000  0.0000    0  109
 110 CBLUFS5  161  1  3  0 1.0273 -29.52     0.00     0.00     0.00    0.00  161.00 0.0000  0.0000  0.0000  0.0000  0.0000    0  110
 111 AVOC  5  161  1  3  0 1.0054 -33.93    65.41    16.72     0.00    0.00  161.00 0.0000  0.0000  0.0000  0.0000  0.0000    0  111
 112 CBLUFS3  345  1  3  0 1.0272 -27.01     0.00     0.00     0.00    0.00  345.00 0.0000  0.0000  0.0000  0.0000 -0.5000    0  112
 113 S1211 5  161  1 12  0 1.0252 -30.95     0.00     0.00   -32.70   95.20  161.00 0.0000  0.0000  0.0000  0.0000  0.0000    0  113
 114 C.BL12G   14  1  3  2 1.0000 -23.68     0.00     0.00   131.00   22.29   14.00 1.0000   33.00  -25.00  0.0000  0.0000    0  114
 115 BOONIL5  161  1  3  0 1.0174 -36.05    17.32     3.34     0.00    0.00  161.00 0.0000  0.0000  0.0000  0.0000  0.0000    0  115
 116 SYCAOR5  161  1  3  0 1.0240 -37.29    56.08    11.20     0.00    0.00  161.00 0.0000  0.0000  0.0000  0.0000  0.0000    0  116
 117 ASHAA 5  161  1  3  0 1.0140 -37.95   101.90    20.06     0.00    0.00  161.00 0.0000  0.0000  0.0000  0.0000  0.0000    0  117
 118 DPS 57G   14  1  3  2 1.0000 -34.03     0.00     0.00   173.00   59.75   14.00 1.0000  100.00  -44.00  0.0000  0.0000    0  118
 119 SYCAOR3  345  1  3  0 1.0097 -35.26     0.00     0.00     0.00    0.00  345.00 0.0000  0.0000  0.0000  0.0000  0.0000    0  119
 120 S3456 3  345  1  8  0 1.0238 -27.37     0.00     0.00     0.00    0.00  345.00 0.0000  0.0000  0.0000  0.0000  0.0000    0  120
 121 C.BL 3G   24  1  3  2 1.0000 -20.10     0.00     0.00   620.00  150.89   24.00 1.0000  250.00 -120.00  0.0000  0.0000    0  121
 122 OSKLOS5  161  1  3  0 0.9885 -45.84    47.28     9.36     0.00    0.00  161.00 0.0000  0.0000  0.0000  0.0000  0.0000    0  122
 123 WAPELO5  161  1 12  0 0.9997 -46.20     0.00     0.00  -165.00   54.67  161.00 0.0000  0.0000  0.0000  0.0000  0.0000    0  123
 124 DVNPT 3  345  1 12  0 1.0089 -31.02  2000.00    90.90  2571.00    0.00  345.00 0.0000  0.0000  0.0000  0.0000  0.0000    0  124
 125 PALM710  345  1 12  2 1.0200 -29.34  2000.00     0.00  2388.00  -22.94  345.00 1.0200 9900.00-1099.00  0.0000  0.0000    0  125
 126 PR ILD3  345  1 12  0 1.0109 -26.59  2000.00     0.00  2467.00   63.80  345.00 0.0000  0.0000  0.0000  0.0000  0.0000    0  126
 127 LACRSS3  345  1 12  0 0.9848 -29.54     0.00     0.00    52.60  -65.00  345.00 0.0000  0.0000  0.0000  0.0000  0.0000    0  127
 128 S3459 3  345  1  8  0 1.0239 -27.27     0.00     0.00     0.00    0.00  345.00 0.0000  0.0000  0.0000  0.0000  0.0000    0  128
 129 S3455 3  345  1  8  0 1.0243 -27.49     0.00     0.00     0.00    0.00  345.00 0.0000  0.0000  0.0000  0.0000  0.0000    0  129
 130 FT.CL1G   22  1  8  2 1.0300 -19.35     0.00     0.00   455.00  123.37   22.00 1.0300  288.00 -144.00  0.0000  0.0000    0  130
 131 NEBCY1G   18  1  8  2 1.0180 -20.43     0.00     0.00   575.00   94.51   18.00 1.0180  320.00 -265.00  0.0000  0.0000    0  131
 132 S1255 5  161  1 12  0 1.0199 -30.36     0.00     0.00  -159.00  -36.10  161.00 0.0000  0.0000  0.0000  0.0000  0.0000    0  132
 133 S701  8   69  1  3  0 1.0352 -32.19    30.10     6.02     0.00    0.00   69.00 0.0000  0.0000  0.0000  0.0000  0.0000    0  133
 134 S701  5  161  1  3  0 1.0231 -30.86    17.46     3.34     0.00    0.00  161.00 0.0000  0.0000  0.0000  0.0000  0.0000    0  134
 135 S702  8   69  1  3  0 1.0320 -32.23    20.06     4.01     0.00    0.00   69.00 0.0000  0.0000  0.0000  0.0000  0.0000    0  135
 136 S703  8   69  1  3  0 1.0254 -32.50    20.06     4.01     0.00    0.00   69.00 0.0000  0.0000  0.0000  0.0000  0.0000    0  136
 137 S704  8   69  1  3  0 1.0290 -32.46    20.06     4.01     0.00    0.00   69.00 0.0000  0.0000  0.0000  0.0000  0.0000    0  137
 138 CBLUFS8   69  1  3  0 1.0315 -31.28     0.00     0.00     0.00    0.00   69.00 0.0000  0.0000  0.0000  0.0000  0.0000    0  138
 139 S706  8   69  1  3  0 1.0265 -32.05    10.10     2.01     0.00    0.00   69.00 0.0000  0.0000  0.0000  0.0000  0.0000    0  139
 140 S705  8   69  1  3  0 1.0285 -32.39    13.58     2.68     0.00    0.00   69.00 0.0000  0.0000  0.0000  0.0000  0.0000    0  140
 141 HSTNGS5  161  1  3  0 1.0026 -33.91     0.00     0.00     0.00    0.00  161.00 0.0000  0.0000  0.0000  0.0000  0.0000    0  141
 142 CLRNDA8   69  1  3  0 1.0275 -40.63    27.09     5.35     0.00    0.00   69.00 0.0000  0.0000  0.0000  0.0000  0.0000    0  142
 143 R.OAK 8   69  1  3  0 1.0056 -39.43    21.07     4.01     0.00    0.00   69.00 0.0000  0.0000  0.0000  0.0000  0.0000    0  143
 144 HSTNGS8   69  1  3  0 1.0220 -36.17    12.37     2.01     0.00    0.00   69.00 0.0000  0.0000  0.0000  0.0000  0.0000    0  144
 145 GWOOD 8   69  1  3  0 1.0189 -34.40    10.83     2.21     0.00    0.00   69.00 0.0000  0.0000  0.0000  0.0000  0.0000    0  145
 146 SHENDO8   69  1  3  0 1.0098 -39.89    21.33     4.01     0.00    0.00   69.00 0.0000  0.0000  0.0000  0.0000  0.0000    0  146
 147 WABASH5  161  1  3  0 1.0102 -38.98   216.40    42.80     0.00    0.00  161.00 0.0000  0.0000  0.0000  0.0000  0.0000    0  147
 148 SYCAOR8   69  1  3  0 1.0132 -40.01   120.00    24.00     0.00    0.00   69.00 0.0000  0.0000  0.0000  0.0000  0.0000    0  148
 149 RAUN  5  161  1  1  0 1.0257 -23.76     0.00     0.00     0.00    0.00  161.00 0.0000  0.0000  0.0000  0.0000  0.0000    0  149
 150 NEAL4 5  161  1  1  0 1.0232 -24.41     4.80     1.60     0.00    0.00  161.00 0.0000  0.0000  0.0000  0.0000  0.0000    0  150
 151 INTRCG5  161  1  1  0 1.0098 -26.70    24.00     8.00     0.00    0.00  161.00 0.0000  0.0000  0.0000  0.0000  0.0000    0  151
 152 TEKAMA5  161  1 12  0 1.0232 -26.79     0.00     0.00    -6.00    2.80  161.00 0.0000  0.0000  0.0000  0.0000  0.0000    0  152
 153 NEAL  8   69  1  1  0 1.0176 -25.80     4.00     1.60     0.00    0.00   69.00 0.0000  0.0000  0.0000  0.0000  0.0000    0  153
 154 KELLOG8   69  1  1  0 0.9749 -32.10    28.00     9.60     0.00    0.00   69.00 0.0000  0.0000  0.0000  0.0000  0.0600    0  154
 155 M SIDE8   69  1  1  0 0.9852 -30.27    12.00     4.00     0.00    0.00   69.00 0.0000  0.0000  0.0000  0.0000  0.0000    0  155
 156 E SIDE8   69  1  1  0 0.9785 -31.79     8.00     2.40     0.00    0.00   69.00 0.0000  0.0000  0.0000  0.0000  0.0000    0  156
 157 PLYMTH8   69  1  1  0 0.9800 -32.55    32.00    10.40     0.00    0.00   69.00 0.0000  0.0000  0.0000  0.0000  0.0000    0  157
 158 LOGANP8   69  1  1  0 0.9681 -33.49    16.00     5.60     0.00    0.00   69.00 0.0000  0.0000  0.0000  0.0000  0.0300    0  158
 159 MCCOOK8   69  1  1  0 0.9684 -33.33     8.00     2.40     0.00    0.00   69.00 0.0000  0.0000  0.0000  0.0000  0.0000    0  159
 160 SC WST8   69  1  1  0 0.9712 -32.76    14.40     4.80     0.00    0.00   69.00 0.0000  0.0000  0.0000  0.0000  0.0300    0  160
 161 KELOG 5  161  1  1  0 1.0038 -28.10    32.00    10.40     0.00    0.00  161.00 0.0000  0.0000  0.0000  0.0000  0.0000    0  161
 162 LEEDS 5  161  1  1  0 1.0002 -28.97    20.00     6.40     0.00    0.00  161.00 0.0000  0.0000  0.0000  0.0000  0.0000    0  162
-999
BRANCH DATA FOLLOWS                 284 ITEMS (HEADER)
   1    2  1  9 1 0  0.003500  0.032100   0.54380 3450.    0.    0.    0 0  0.0000    0.00 0.0000 0.0000 .00000  0.0000 0.0000     1
   1    3  1  9 1 0  0.003400  0.032600   0.72240 3709.    0.    0.    0 0  0.0000    0.00 0.0000 0.0000 .00000  0.0000 0.0000     2
   1    4  1  9 1 0  0.006400  0.062100   0.98700 3450.    0.    0.    0 0  0.0000    0.00 0.0000 0.0000 .00000  0.0000 0.0000     3
   1    5  1  9 1 0  0.001100  0.011900   0.20120 4002.    0.    0.    0 0  0.0000    0.00 0.0000 0.0000 .00000  0.0000 0.0000     4
   1    6  1  9 1 1  0.000000  0.013300   0.00000  900.    0.    0.    0 0  1.0519    0.00 0.0000 0.0000 .00000  0.0000 0.0000     5
   2    7  1  9 1 0  0.001400  0.012500   0.21220 3709.    0.    0.    0 0  0.0000    0.00 0.0000 0.0000 .00000  0.0000 0.0000     6
   2   13  1  9 1 0  0.004600  0.041700   0.70580 3450.    0.    0.    0 0  0.0000    0.00 0.0000 0.0000 .00000  0.0000 0.0000     7
   3   14  1 12 1 0  0.236100  1.012200   0.00000    0.    0.    0.    0 0  0.0000    0.00 0.0000 0.0000 .00000  0.0000 0.0000     8
   3   50  1 12 1 0  0.038900  0.169900   0.00000    0.    0.    0.    0 0  0.0000    0.00 0.0000 0.0000 .00000  0.0000 0.0000     9
   3  103  1 12 1 0  0.107400  1.802300   0.00000    0.    0.    0.    0 0  0.0000    0.00 0.0000 0.0000 .00000  0.0000 0.0000    10
   3  123  1 12 1 0  0.288300  1.671900   0.00000    0.    0.    0.    0 0  0.0000    0.00 0.0000 0.0000 .00000  0.0000 0.0000    11
   3  124  1 12 1 0  0.014000  0.648300   0.00000    0.    0.    0.    0 0  0.0000    0.00 0.0000 0.0000 .00000  0.0000 0.0000    12
   3  125  1 12 1 0  0.008400  0.113900   0.00000    0.    0.    0.    0 0  0.0000    0.00 0.0000 0.0000 .00000  0.0000 0.0000    13
   4  112  1  3 1 0  0.005900  0.056800   0.92500 3450.    0.    0.    0 0  0.0000    0.00 0.0000 0.0000 .00000  0.0000 0.0000    14
   4  115  1  3 1 1  0.000000  0.018500   0.00000  500.    0.    0.    0 0  1.0000    0.00 0.0000 0.0000 .00000  0.0000 0.0000    15
   4  119  1  3 1 0  0.001400  0.011900   0.20500 3450.    0.    0.    0 0  0.0000    0.00 0.0000 0.0000 .00000  0.0000 0.0000    16
   5  120  1  8 1 0  0.002200  0.022400   0.37920 4002.    0.    0.    0 0  0.0000    0.00 0.0000 0.0000 .00000  0.0000 0.0000    17
   5  129  1  8 1 0  0.002200  0.026800   0.46120 2474.    0.    0.    0 0  0.0000    0.00 0.0000 0.0000 .00000  0.0000 0.0000    18
   5  131  1  8 1 1  0.000000  0.012700   0.00000  710.    0.    0.    0 0  1.0249    0.00 0.0000 0.0000 .00000  0.0000 0.0000    19
   7    8  1  9 1 1  0.000400  0.018900   0.00000  672.    0.    0.    0 0  0.9751    0.00 0.0000 0.0000 .00000  0.0000 0.0000    20
   7    9  1  9 1 0  0.001700  0.016900   0.28720 2474.    0.    0.    0 0  0.0000    0.00 0.0000 0.0000 .00000  0.0000 0.0000    21
   8   10  1 12 1 0  0.459100  1.070300   0.00000    0.    0.    0.    0 0  0.0000    0.00 0.0000 0.0000 .00000  0.0000 0.0000    22
   8   12  1 12 1 0  0.010600  0.057400   0.00000    0.    0.    0.    0 0  0.0000    0.00 0.0000 0.0000 .00000  0.0000 0.0000    23
   8   13  1 12 1 0  0.127400  0.478400   0.00000    0.    0.    0.    0 0  0.0000    0.00 0.0000 0.0000 .00000  0.0000 0.0000    24
   8   14  1 12 1 0  0.047300  0.395600   0.00000    0.    0.    0.    0 0  0.0000    0.00 0.0000 0.0000 .00000  0.0000 0.0000    25
   8   15  1 12 1 0  0.503500  1.743300   0.00000    0.    0.    0.    0 0  0.0000    0.00 0.0000 0.0000 .00000  0.0000 0.0000    26
   8  132  1 12 1 0  0.025200  0.288000   0.00000    0.    0.    0.    0 0  0.0000    0.00 0.0000 0.0000 .00000  0.0000 0.0000    27
   9   75  1  8 1 0  0.001300  0.015000   0.26820 2474.    0.    0.    0 0  0.0000    0.00 0.0000 0.0000 .00000  0.0000 0.0000    28
  10   11  1 12 1 0  0.005100  0.037000   0.07160  736.    0.    0.    0 0  0.0000    0.00 0.0000 0.0000 .00000  0.0000 0.0000    29
  10   13  1 12 1 0  0.129900  0.622000   0.00000    0.    0.    0.    0 0  0.0000    0.00 0.0000 0.0000 .00000  0.0000 0.0000    30
  10   15  1 12 1 0  0.127500  0.703300   0.00000    0.    0.    0.    0 0  0.0000    0.00 0.0000 0.0000 .00000  0.0000 0.0000    31
  10   60  1 12 1 0  0.252500  1.224200   0.00000    0.    0.    0.    0 0  0.0000    0.00 0.0000 0.0000 .00000  0.0000 0.0000    32
  11   15  1 10 1 0  0.028500  0.179300   0.34840    0.    0.    0.    0 0  0.0000    0.00 0.0000 0.0000 .00000  0.0000 0.0000    33
  11   46  1 10 1 0  0.014200  0.122500   0.18760  460.    0.    0.    0 0  0.0000    0.00 0.0000 0.0000 .00000  0.0000 0.0000    34
  11   58  1 10 1 0  0.017000  0.107000   0.20740    0.    0.    0.    0 0  0.0000    0.00 0.0000 0.0000 .00000  0.0000 0.0000    35
  11   59  1 10 1 0  0.007100  0.047100   0.08520    0.    0.    0.    0 0  0.0000    0.00 0.0000 0.0000 .00000  0.0000 0.0000    36
  12    2  1 12 1 1  0.000800  0.037700   0.00000  336.    0.    0.    0 0  1.0252    0.00 0.0000 0.0000 .00000  0.0000 0.0000    37
  12   13  1 12 1 0  0.103800  0.313700   0.00000    0.    0.    0.    0 0  0.0000    0.00 0.0000 0.0000 .00000  0.0000 0.0000    38
  12   14  1 12 1 0  0.159800  0.641500   0.00000    0.    0.    0.    0 0  0.0000    0.00 0.0000 0.0000 .00000  0.0000 0.0000    39
  12  132  1 12 1 0  0.448600  1.577300   0.00000    0.    0.    0.    0 0  0.0000    0.00 0.0000 0.0000 .00000  0.0000 0.0000    40
  13   15  1 12 1 0  0.044000  0.322700   0.00000    0.    0.    0.    0 0  0.0000    0.00 0.0000 0.0000 .00000  0.0000 0.0000    41
  13   62  1 12 1 0  0.009800  0.122100   0.00000    0.    0.    0.    0 0  0.0000    0.00 0.0000 0.0000 .00000  0.0000 0.0000    42
  14   72  1 12 1 0  0.010700  0.082800   0.00000    0.    0.    0.    0 0  0.0000    0.00 0.0000 0.0000 .00000  0.0000 0.0000    43
  14  113  1 12 1 0  0.006300  0.038200   0.00000    0.    0.    0.    0 0  0.0000    0.00 0.0000 0.0000 .00000  0.0000 0.0000    44
  14  132  1 12 1 0  0.005700  0.037400   0.00000    0.    0.    0.    0 0  0.0000    0.00 0.0000 0.0000 .00000  0.0000 0.0000    45
  15   58  1 12 1 0  0.011500  0.073200   0.14200    0.    0.    0.    0 0  0.0000    0.00 0.0000 0.0000 .00000  0.0000 0.0000    46
  15   60  1 12 1 0  0.390700  1.675300   0.00000    0.    0.    0.    0 0  0.0000    0.00 0.0000 0.0000 .00000  0.0000 0.0000    47
  15   62  1 12 1 0  0.008400  0.058800   0.00000    0.    0.    0.    0 0  0.0000    0.00 0.0000 0.0000 .00000  0.0000 0.0000    48
  15   63  1 12 1 0  0.170400  1.455500   0.00000    0.    0.    0.    0 0  0.0000    0.00 0.0000 0.0000 .00000  0.0000 0.0000    49
  16   17  1 12 1 0  0.601700  1.437300   0.00000    0.    0.    0.    0 0  0.0000    0.00 0.0000 0.0000 .00000  0.0000 0.0000    50
  16   18  1 12 1 0  0.029700  0.107000   0.05460  269.    0.    0.    0 0  0.0000    0.00 0.0000 0.0000 .00000  0.0000 0.0000    51
  16   27  1 12 1 0  0.157400  0.887100   0.00000    0.    0.    0.    0 0  0.0000    0.00 0.0000 0.0000 .00000  0.0000 0.0000    52
  16  126  1 12 1 0  0.105300  0.513200   0.00000    0.    0.    0.    0 0  0.0000    0.00 0.0000 0.0000 .00000  0.0000 0.0000    53
  16  127  1 12 1 0  0.095800  0.527600   0.00000    0.    0.    0.    0 0  0.0000    0.00 0.0000 0.0000 .00000  0.0000 0.0000    54
  17   18  1 12 1 0  0.021300  0.101300   0.06420  361.    0.    0.    0 0  0.0000    0.00 0.0000 0.0000 .00000  0.0000 0.0000    55
  17   19  1 12 1 0  0.231400  0.767800   0.00000    0.    0.    0.    0 0  0.0000    0.00 0.0000 0.0000 .00000  0.0000 0.0000    56
  17   21  1 12 1 0  0.047100  0.266500   0.00000    0.    0.    0.    0 0  0.0000    0.00 0.0000 0.0000 .00000  0.0000 0.0000    57
  17  127  1 12 1 0  0.028700  0.263700   0.00000    0.    0.    0.    0 0  0.0000    0.00 0.0000 0.0000 .00000  0.0000 0.0000    58
  18   30  1  6 1 0  0.020700  0.108800   0.05200  362.    0.    0.    0 0  0.0000    0.00 0.0000 0.0000 .00000  0.0000 0.0000    59
  18   32  1  6 1 0  0.023400  0.122000   0.05820  361.    0.    0.    0 0  0.0000    0.00 0.0000 0.0000 .00000  0.0000 0.0000    60
  18   37  1  6 1 1  0.000000  0.045600   0.00000  225.    0.    0.    0 0  1.1193    0.00 0.0000 0.0000 .00000  0.0000 0.0000    61
  19   21  1 12 1 0  0.386700  1.900500   0.00000    0.    0.    0.    0 0  0.0000    0.00 0.0000 0.0000 .00000  0.0000 0.0000    62
  19   38  1 12 1 0  0.023900  0.125000   0.05960  354.    0.    0.    0 0  0.0000    0.00 0.0000 0.0000 .00000  0.0000 0.0000    63
  19   43  1 12 1 0  0.060300  0.257200   0.00000    0.    0.    0.    0 0  0.0000    0.00 0.0000 0.0000 .00000  0.0000 0.0000    64
  19  127  1 12 1 0  0.107400  0.680900   0.00000    0.    0.    0.    0 0  0.0000    0.00 0.0000 0.0000 .00000  0.0000 0.0000    65
  20   53  1 10 1 1  0.000000  0.114000   0.00000   75.    0.    0.    0 0  1.0000    0.00 0.0000 0.0000 .00000  0.0000 0.0000    66
  20  157  1 10 1 0  0.011300  0.027900   0.00040   44.    0.    0.    0 0  0.0000    0.00 0.0000 0.0000 .00000  0.0000 0.0000    67
  21   22  1 12 1 0  0.031200  0.162900   0.07780  387.    0.    0.    0 0  0.0000    0.00 0.0000 0.0000 .00000  0.0000 0.0000    68
  21  127  1 12 1 0  0.010500  0.641400   0.00000    0.    0.    0.    0 0  0.0000    0.00 0.0000 0.0000 .00000  0.0000 0.0000    69
  22   38  1  6 1 0  0.014000  0.054000   0.02500  362.    0.    0.    0 0  0.0000    0.00 0.0000 0.0000 .00000  0.0000 0.0000    70
  22   39  1  6 1 1  0.000000  0.049300   0.00000  225.    0.    0.    0 0  1.1081    0.00 0.0000 0.0000 .00000  0.0000 0.0000    71
  22   40  1  6 1 0  0.018800  0.071700   0.03280  362.    0.    0.    0 0  0.0000    0.00 0.0000 0.0000 .00000  0.0000 0.0000    72
  22   41  1  6 1 0  0.017200  0.085000   0.04040  351.    0.    0.    0 0  0.0000    0.00 0.0000 0.0000 .00000  0.0000 0.0000    73
  23   24  1 12 1 0  0.017400  0.051100   0.02300  361.    0.    0.    0 0  0.0000    0.00 0.0000 0.0000 .00000  0.0000 0.0000    74
  23   60  1 12 1 0  0.066000  0.309300   0.00000    0.    0.    0.    0 0  0.0000    0.00 0.0000 0.0000 .00000  0.0000 0.0000    75
  24   25  1  6 1 1  0.000000  0.034000   0.00000  225.    0.    0.    0 0  1.0217    0.00 0.0000 0.0000 .00000  0.0000 0.0000    76
  24   28  1  6 1 0  0.024900  0.072500   0.02020  361.    0.    0.    0 0  0.0000    0.00 0.0000 0.0000 .00000  0.0000 0.0000    77
  24   45  1  6 1 0  0.013700  0.072500   0.03400  359.    0.    0.    0 0  0.0000    0.00 0.0000 0.0000 .00000  0.0000 0.0000    78
  25   26  1  6 1 0  0.005900  0.058300   0.93020 4105.    0.    0.    0 0  0.0000    0.00 0.0000 0.0000 .00000  0.0000 0.0000    79
  25   27  1  6 1 0  0.004400  0.041000   0.83840 2484.    0.    0.    0 0  0.0000    0.00 0.0000 0.0000 .00000  0.0000 0.0000    80
  26   74  1  1 1 0  0.006300  0.060700   0.93000 2484.    0.    0.    0 0  0.0000    0.00 0.0000 0.0000 .00000  0.0000 0.0000    81
  26   75  1  1 1 0  0.003000  0.032200   0.50380 3709.    0.    0.    0 0  0.0000    0.00 0.0000 0.0000 .00000  0.0000 0.0000    82
  26   76  1  1 1 1  0.000000  0.008200   0.00000 1250.    0.    0.    0 0  1.0400    0.00 0.0000 0.0000 .00000  0.0000 0.0000    83
  27   31  1 12 1 0  0.010100  0.127300   0.00000    0.    0.    0.    0 0  0.0000    0.00 0.0000 0.0000 .00000  0.0000 0.0000    84
  27   62  1 12 1 0  0.017300  0.581000   0.00000    0.    0.    0.    0 0  0.0000    0.00 0.0000 0.0000 .00000  0.0000 0.0000    85
  27   65  1 12 1 0  0.010500  0.276400   0.00000    0.    0.    0.    0 0  0.0000    0.00 0.0000 0.0000 .00000  0.0000 0.0000    86
  27  125  1 12 1 0  0.035000  1.684500   0.00000    0.    0.    0.    0 0  0.0000    0.00 0.0000 0.0000 .00000  0.0000 0.0000    87
  27  126  1 12 1 0  0.002200  0.022500   0.00000    0.    0.    0.    0 0  0.0000    0.00 0.0000 0.0000 .00000  0.0000 0.0000    88
  27  127  1 12 1 0  0.150600  1.435500   0.00000    0.    0.    0.    0 0  0.0000    0.00 0.0000 0.0000 .00000  0.0000 0.0000    89
  28   29  1  6 1 0  0.024000  0.096500   0.04440  269.    0.    0.    0 0  0.0000    0.00 0.0000 0.0000 .00000  0.0000 0.0000    90
  29   30  1  6 1 0  0.038000  0.150000   0.06960  177.    0.    0.    0 0  0.0000    0.00 0.0000 0.0000 .00000  0.0000 0.0000    91
  29   31  1  6 1 0  0.020600  0.083300   0.03840  269.    0.    0.    0 0  0.0000    0.00 0.0000 0.0000 .00000  0.0000 0.0000    92
  30   32  1  6 1 0  0.024900  0.100500   0.04580  325.    0.    0.    0 0  0.0000    0.00 0.0000 0.0000 .00000  0.0000 0.0000    93
  32   33  1  6 1 0  0.011400  0.044800   0.02080  325.    0.    0.    0 0  0.0000    0.00 0.0000 0.0000 .00000  0.0000 0.0000    94
  33   34  1  6 1 0  0.028000  0.114000   0.05200  180.    0.    0.    0 0  0.0000    0.00 0.0000 0.0000 .00000  0.0000 0.0000    95
  33   35  1  6 1 0  0.021600  0.107000   0.05100  387.    0.    0.    0 0  0.0000    0.00 0.0000 0.0000 .00000  0.0000 0.0000    96
  33   36  1  6 1 0  0.010200  0.053600   0.02540  349.    0.    0.    0 0  0.0000    0.00 0.0000 0.0000 .00000  0.0000 0.0000    97
  34   40  1  1 1 0  0.039700  0.151700   0.06900  325.    0.    0.    0 0  0.0000    0.00 0.0000 0.0000 .00000  0.0000 0.0000    98
  34   77  1  1 1 0  0.023500  0.089600   0.04080  269.    0.    0.    0 0  0.0000    0.00 0.0000 0.0000 .00000  0.0000 0.0000    99
  35   40  1  1 1 0  0.027100  0.134100   0.06380  179.    0.    0.    0 0  0.0000    0.00 0.0000 0.0000 .00000  0.0000 0.0000   100
  36   67  1  2 1 0  0.017600  0.092400   0.04400  349.    0.    0.    0 0  0.0000    0.00 0.0000 0.0000 .00000  0.0000 0.0000   101
  37   39  1 11 1 0  0.003900  0.037900   0.67000 1656.    0.    0.    0 0  0.0000    0.00 0.0000 0.0000 .00000  0.0000 0.0000   102
  37  126  1 11 1 0  0.004000  0.038100   0.67000 2484.    0.    0.    0 0  0.0000    0.00 0.0000 0.0000 .00000  0.0000 0.0000   103
  37  127  1 11 1 0  0.004000  0.040300   0.68320 3312.    0.    0.    0 0  0.0000    0.00 0.0000 0.0000 .00000  0.0000 0.0000   104
  39   42  1  6 1 0  0.002000  0.018600   0.32000 1656.    0.    0.    0 0  0.0000    0.00 0.0000 0.0000 .00000  0.0000 0.0000   105
  40   81  1  1 1 0  0.030000  0.345000   0.00380   81.    0.    0.    0 0  0.0000    0.00 0.0000 0.0000 .00000  0.0000 0.0000   106
  40   82  1  1 1 0  0.004000  0.019000   0.01080  351.    0.    0.    0 0  0.0000    0.00 0.0000 0.0000 .00000  0.0000 0.0000   107
  41   81  1  1 1 0  0.037000  0.372000   0.00580   81.    0.    0.    0 0  0.0000    0.00 0.0000 0.0000 .00000  0.0000 0.0000   108
  41   83  1  1 1 0  0.005200  0.025600   0.01240    0.    0.    0.    0 0  0.0000    0.00 0.0000 0.0000 .00000  0.0000 0.0000   109
  41   84  1  1 1 0  0.005700  0.058000   0.02920  406.    0.    0.    0 0  0.0000    0.00 0.0000 0.0000 .00000  0.0000 0.0000   110
  42  109  1  2 1 0  0.001900  0.019600   0.33300 3795.    0.    0.    0 0  0.0000    0.00 0.0000 0.0000 .00000  0.0000 0.0000   111
  43   44  1 12 1 0  0.018800  0.075100   0.03480  269.    0.    0.    0 0  0.0000    0.00 0.0000 0.0000 .00000  0.0000 0.0000   112
  43  103  1 12 1 0  0.032400  0.170200   0.00000    0.    0.    0.    0 0  0.0000    0.00 0.0000 0.0000 .00000  0.0000 0.0000   113
  43  124  1 12 1 0  0.029300  0.176600   0.00000    0.    0.    0.    0 0  0.0000    0.00 0.0000 0.0000 .00000  0.0000 0.0000   114
  43  125  1 12 1 0  0.144900  0.650900   0.00000    0.    0.    0.    0 0  0.0000    0.00 0.0000 0.0000 .00000  0.0000 0.0000   115
  44  102  1  2 1 0  0.013000  0.050000   0.02360  180.    0.    0.    0 0  0.0000    0.00 0.0000 0.0000 .00000  0.0000 0.0000   116
  44  103  1  2 1 0  0.012700  0.051000   0.02440  180.    0.    0.    0 0  0.0000    0.00 0.0000 0.0000 .00000  0.0000 0.0000   117
  45   54  1  2 1 0  0.010800  0.057000   0.02720  354.    0.    0.    0 0  0.0000    0.00 0.0000 0.0000 .00000  0.0000 0.0000   118
  46   47  1 10 1 0  0.031000  0.137800   0.06220  177.    0.    0.    0 0  0.0000    0.00 0.0000 0.0000 .00000  0.0000 0.0000   119
  47   48  1  2 1 0  0.025100  0.111400   0.05020  177.    0.    0.    0 0  0.0000    0.00 0.0000 0.0000 .00000  0.0000 0.0000   120
  47   49  1  2 1 0  0.003000  0.012000   0.00540    0.    0.    0.    0 0  0.0000    0.00 0.0000 0.0000 .00000  0.0000 0.0000   121
  48   50  1 10 1 0  0.033600  0.166000   0.07800    0.    0.    0.    0 0  0.0000    0.00 0.0000 0.0000 .00000  0.0000 0.0000   122
  48   51  1 10 1 0  0.042000  0.130000   0.05700    0.    0.    0.    0 0  0.0000    0.00 0.0000 0.0000 .00000  0.0000 0.0000   123
  48   52  1 10 1 0  0.054000  0.168000   0.07400  261.    0.    0.    0 0  0.0000    0.00 0.0000 0.0000 .00000  0.0000 0.0000   124
  49   87  1  2 1 0  0.014000  0.068000   0.02660    0.    0.    0.    0 0  0.0000    0.00 0.0000 0.0000 .00000  0.0000 0.0000   125
  50   51  1 12 1 0  0.030000  0.090000   0.04100    0.    0.    0.    0 0  0.0000    0.00 0.0000 0.0000 .00000  0.0000 0.0000   126
  50  123  1 12 1 0  0.407100  1.854300   0.00000    0.    0.    0.    0 0  0.0000    0.00 0.0000 0.0000 .00000  0.0000 0.0000   127
  50  125  1 12 1 0  0.133700  0.603100   0.00000    0.    0.    0.    0 0  0.0000    0.00 0.0000 0.0000 .00000  0.0000 0.0000   128
  51  141  1  3 1 0  0.032300  0.100000   0.04420  264.    0.    0.    0 0  0.0000    0.00 0.0000 0.0000 .00000  0.0000 0.0000   129
  52   79  1  3 1 0  0.062300  0.212600   0.09400  269.    0.    0.    0 0  0.0000    0.00 0.0000 0.0000 .00000  0.0000 0.0000   130
  52  106  1  3 1 0  0.023100  0.071700   0.03140  269.    0.    0.    0 0  0.0000    0.00 0.0000 0.0000 .00000  0.0000 0.0000   131
  52  116  1  3 1 0  0.006000  0.048700   0.02560  515.    0.    0.    0 0  0.0000    0.00 0.0000 0.0000 .00000  0.0000 0.0000   132
  52  117  1  3 1 0  0.011700  0.049300   0.02300  337.    0.    0.    0 0  0.0000    0.00 0.0000 0.0000 .00000  0.0000 0.0000   133
  52  118  1  3 1 1  0.000000  0.052000   0.00000  200.    0.    0.    0 0  1.0429    0.00 0.0000 0.0000 .00000  0.0000 0.0000   134
  53   11  1 10 1 1  0.000500  0.020000   0.00000  375.    0.    0.    0 0  1.0000    0.00 0.0000 0.0000 .00000  0.0000 0.0000   135
  53   54  1 10 1 0  0.027500  0.196100   0.09560  177.    0.    0.    0 0  0.0000    0.00 0.0000 0.0000 .00000  0.0000 0.0000   136
  53   55  1 10 1 0  0.000500  0.002600   0.00220  538.    0.    0.    0 0  0.0000    0.00 0.0000 0.0000 .00000  0.0000 0.0000   137
  54   56  1 10 1 0  0.017400  0.091000   0.04300  354.    0.    0.    0 0  0.0000    0.00 0.0000 0.0000 .00000  0.0000 0.0000   138
  54   57  1 10 1 0  0.025000  0.123700   0.05880  387.    0.    0.    0 0  0.0000    0.00 0.0000 0.0000 .00000  0.0000 0.0000   139
  55   57  1  1 1 0  0.046200  0.176300   0.08020  375.    0.    0.    0 0  0.0000    0.00 0.0000 0.0000 .00000  0.0000 0.0000   140
  55  149  1  1 1 0  0.015300  0.067100   0.03120  357.    0.    0.    0 0  0.0000    0.00 0.0000 0.0000 .00000  0.0000 0.0000   141
  55  162  1  1 1 0  0.004000  0.018900   0.00980  538.    0.    0.    0 0  0.0000    0.00 0.0000 0.0000 .00000  0.0000 0.0000   142
  56   67  1  7 1 0  0.017000  0.089400   0.04240  349.    0.    0.    0 0  0.0000    0.00 0.0000 0.0000 .00000  0.0000 0.0000   143
  57   80  1  1 1 0  0.027200  0.103700   0.04720  180.    0.    0.    0 0  0.0000    0.00 0.0000 0.0000 .00000  0.0000 0.0000   144
  58   61  1 10 1 0  0.013300  0.101800   0.18420  276.    0.    0.    0 0  0.0000    0.00 0.0000 0.0000 .00000  0.0000 0.0000   145
  59   61  1 10 1 0  0.010600  0.070600   0.12100    0.    0.    0.    0 0  0.0000    0.00 0.0000 0.0000 .00000  0.0000 0.0000   146
  60   61  1 12 1 1  0.002700  0.065300  -0.00220  100.    0.    0.    0 0  1.0252    0.00 0.0000 0.0000 .00000  0.0000 0.0000   147
  60   61  1 12 2 1  0.002000  0.039300   0.00000  200.    0.    0.    0 0  1.0252    0.00 0.0000 0.0000 .00000  0.0000 0.0000   148
  60   62  1 12 1 0  0.367400  0.964000   0.00000    0.    0.    0.    0 0  0.0000    0.00 0.0000 0.0000 .00000  0.0000 0.0000   149
  60   65  1 12 1 0  0.104100  0.414400   0.00000    0.    0.    0.    0 0  0.0000    0.00 0.0000 0.0000 .00000  0.0000 0.0000   150
  60  126  1 12 1 0  0.536700  1.829500   0.00000    0.    0.    0.    0 0  0.0000    0.00 0.0000 0.0000 .00000  0.0000 0.0000   151
  61   62  1 10 1 0  0.029600  0.227500   0.39960  552.    0.    0.    0 0  0.0000    0.00 0.0000 0.0000 .00000  0.0000 0.0000   152
  61   63  1 10 1 0  0.004300  0.042200   0.07640  345.    0.    0.    0 0  0.0000    0.00 0.0000 0.0000 .00000  0.0000 0.0000   153
  62   63  1 12 1 0  0.015800  0.170200   0.00000    0.    0.    0.    0 0  0.0000    0.00 0.0000 0.0000 .00000  0.0000 0.0000   154
  62   65  1 12 1 0  0.004000  0.074000   0.00000    0.    0.    0.    0 0  0.0000    0.00 0.0000 0.0000 .00000  0.0000 0.0000   155
  62  126  1 12 1 0  0.004400  0.296900   0.00000    0.    0.    0.    0 0  0.0000    0.00 0.0000 0.0000 .00000  0.0000 0.0000   156
  63   65  1 12 1 0  0.240900  1.960000   0.00000    0.    0.    0.    0 0  0.0000    0.00 0.0000 0.0000 .00000  0.0000 0.0000   157
  64   65  1 10 1 0  0.005000  0.057100   0.90980 4140.    0.    0.    0 0  0.0000    0.00 0.0000 0.0000 .00000  0.0000 0.0000   158
  64   66  1 10 1 0  0.003300  0.038100   0.60660 4140.    0.    0.    0 0  0.0000    0.00 0.0000 0.0000 .00000  0.0000 0.0000   159
  65  126  1 12 1 0  0.003100  0.153600   0.00000    0.    0.    0.    0 0  0.0000    0.00 0.0000 0.0000 .00000  0.0000 0.0000   160
  66   11  1 10 1 1  0.000000  0.011800   0.00000  500.    0.    0.    0 0  1.0000    0.00 0.0000 0.0000 .00000  0.0000 0.0000   161
  67   68  1  7 1 0  0.019300  0.101300   0.04820  349.    0.    0.    0 0  0.0000    0.00 0.0000 0.0000 .00000  0.0000 0.0000   162
  68   69  1  7 1 0  0.006800  0.035300   0.01680  351.    0.    0.    0 0  0.0000    0.00 0.0000 0.0000 .00000  0.0000 0.0000   163
  69   77  1  1 1 0  0.009800  0.037400   0.01700  269.    0.    0.    0 0  0.0000    0.00 0.0000 0.0000 .00000  0.0000 0.0000   164
  69   78  1  1 1 0  0.011400  0.043400   0.01960  180.    0.    0.    0 0  0.0000    0.00 0.0000 0.0000 .00000  0.0000 0.0000   165
  69   79  1  1 1 0  0.005200  0.043300   0.02200  522.    0.    0.    0 0  0.0000    0.00 0.0000 0.0000 .00000  0.0000 0.0000   166
  70   73  1  1 1 1  0.000000  0.019700   0.00000  495.    0.    0.    0 0  1.0398    0.00 0.0000 0.0000 .00000  0.0000 0.0000   167
  70  149  1  1 1 0  0.000200  0.001800   0.00100  538.    0.    0.    0 0  0.0000    0.00 0.0000 0.0000 .00000  0.0000 0.0000   168
  70  149  1  1 2 0  0.000200  0.001800   0.00100  538.    0.    0.    0 0  0.0000    0.00 0.0000 0.0000 .00000  0.0000 0.0000   169
  71   85  1  1 1 0  0.030400  0.150600   0.07160  351.    0.    0.    0 0  0.0000    0.00 0.0000 0.0000 .00000  0.0000 0.0000   170
  71  150  1  1 1 0  0.019600  0.097000   0.04620  361.    0.    0.    0 0  0.0000    0.00 0.0000 0.0000 .00000  0.0000 0.0000   171
  72  113  1 12 1 0  0.002200  0.013000   0.00000    0.    0.    0.    0 0  0.0000    0.00 0.0000 0.0000 .00000  0.0000 0.0000   172
  72  132  1 12 1 0  0.002800  0.016800   0.00000    0.    0.    0.    0 0  0.0000    0.00 0.0000 0.0000 .00000  0.0000 0.0000   173
  72  152  1 12 1 0  0.038500  0.180000   0.00000    0.    0.    0.    0 0  0.0000    0.00 0.0000 0.0000 .00000  0.0000 0.0000   174
  74  119  1  5 1 0  0.003100  0.031000   0.48220 3450.    0.    0.    0 0  0.0000    0.00 0.0000 0.0000 .00000  0.0000 0.0000   175
  75  128  1  8 1 0  0.000800  0.008700   0.16600 2474.    0.    0.    0 0  0.0000    0.00 0.0000 0.0000 .00000  0.0000 0.0000   176
  75  130  1  8 1 1  0.000400  0.024200   0.00000  578.    0.    0.    0 0  1.0249    0.00 0.0000 0.0000 .00000  0.0000 0.0000   177
  78   79  1  5 1 0  0.005100  0.033600   0.01820  456.    0.    0.    0 0  0.0000    0.00 0.0000 0.0000 .00000  0.0000 0.0000   178
  78   80  1  5 1 0  0.024400  0.093000   0.04220  180.    0.    0.    0 0  0.0000    0.00 0.0000 0.0000 .00000  0.0000 0.0000   179
  79   74  1  5 1 1  0.000000  0.018000   0.00000  500.    0.    0.    0 0  1.0248    0.00 0.0000 0.0000 .00000  0.0000 0.0000   180
  82   83  1  1 1 0  0.005300  0.024900   0.01300    0.    0.    0.    0 0  0.0000    0.00 0.0000 0.0000 .00000  0.0000 0.0000   181
  84   93  1  2 1 0  0.012500  0.082600   0.04140  406.    0.    0.    0 0  0.0000    0.00 0.0000 0.0000 .00000  0.0000 0.0000   182
  85   86  1  1 1 0  0.021100  0.104600   0.04980  387.    0.    0.    0 0  0.0000    0.00 0.0000 0.0000 .00000  0.0000 0.0000   183
  86   87  1  2 1 0  0.028000  0.112000   0.05380  325.    0.    0.    0 0  0.0000    0.00 0.0000 0.0000 .00000  0.0000 0.0000   184
  86   88  1  2 1 0  0.044000  0.228000   0.10900  180.    0.    0.    0 0  0.0000    0.00 0.0000 0.0000 .00000  0.0000 0.0000   185
  88   96  1  4 1 0  0.074000  0.250000   0.01420   48.    0.    0.    0 0  0.0000    0.00 0.0000 0.0000 .00000  0.0000 0.0000   186
  88  106  1  4 1 0  0.007900  0.046800   0.02320  173.    0.    0.    0 0  0.0000    0.00 0.0000 0.0000 .00000  0.0000 0.0000   187
  89   86  1  2 1 1  0.000000  0.057000   0.00000   90.    0.    0.    0 0  1.0252    0.00 0.0000 0.0000 .00000  0.0000 0.0000   188
  89   90  1  2 1 0  0.069000  0.134000   0.01400   69.    0.    0.    0 0  0.0000    0.00 0.0000 0.0000 .00000  0.0000 0.0000   189
  90   96  1  2 1 0  0.183700  0.359000   0.03700   92.    0.    0.    0 0  0.0000    0.00 0.0000 0.0000 .00000  0.0000 0.0000   190
  91   92  1  2 1 0  0.015600  0.081900   0.03760  270.    0.    0.    0 0  0.0000    0.00 0.0000 0.0000 .00000  0.0000 0.0000   191
  91   93  1  2 1 0  0.014300  0.089500   0.04500  523.    0.    0.    0 0  0.0000    0.00 0.0000 0.0000 .00000  0.0000 0.0000   192
  91   94  1  2 1 0  0.014500  0.095700   0.04800  406.    0.    0.    0 0  0.0000    0.00 0.0000 0.0000 .00000  0.0000 0.0000   193
  92  102  1  2 1 0  0.015000  0.061000   0.02920  270.    0.    0.    0 0  0.0000    0.00 0.0000 0.0000 .00000  0.0000 0.0000   194
  93   42  1  2 1 1  0.000000  0.026000   0.00000  400.    0.    0.    0 0  1.0248    0.00 0.0000 0.0000 .00000  0.0000 0.0000   195
  93  108  1  2 1 1  0.000000  0.015400   0.00000  600.    0.    0.    0 0  1.0503    0.00 0.0000 0.0000 .00000  0.0000 0.0000   196
  94  103  1  5 1 0  0.022700  0.133300   0.06600  359.    0.    0.    0 0  0.0000    0.00 0.0000 0.0000 .00000  0.0000 0.0000   197
  94  107  1  5 1 0  0.061300  0.189100   0.08360  269.    0.    0.    0 0  0.0000    0.00 0.0000 0.0000 .00000  0.0000 0.0000   198
  94  109  1  5 1 1  0.000000  0.035000   0.00000  300.    0.    0.    0 0  1.0248    0.00 0.0000 0.0000 .00000  0.0000 0.0000   199
  95   91  1  2 1 1  0.005400  0.045800  -0.00360  250.    0.    0.    0 0  1.0200    0.00 0.0000 0.0000 .00000  0.0000 0.0000   200
...
-999
LOSS ZONES FOLLOWS                   12 ITEMS (HEADER)
  1  1                                                                                                                             1
  2  2                                                                                                                             2
  3  3                                                                                                                             3
  4  4                                                                                                                             4
  5  5                                                                                                                             5
  6  6                                                                                                                             6
  7  7                                                                                                                             7
  8  8                                                                                                                             8
  9  9                                                                                                                             9
 10 10                                                                                                                            10
 11 11                                                                                                                            11
 12 12                                                                                                                            12
-99
INTERCHANGE DATA FOLLOWS              0 ITEMS (HEADER)
-9
TIE LINES FOLLOW                      0 ITEMS (HEADER)
-999
END OF DATA
